testcases/case3deterministic/PowerModels.json
{
    "bus": {
        "1": {
            "bus_type": 3,
            "zone": 1,
            "va": 0,
            "area": 1,
            "vm": 1,
            "vmin": 0.9,
            "vmax": 1.1,
            "base_kv": 0,
            "bus_i": 1,
            "index": 1
        },
        "2": {
            "bus_type": 2,
            "zone": 1,
            "va": 0,
            "area": 1,
            "vm": 1,
            "vmin": 0.9,
            "vmax": 1.1,
            "base_kv": 0,
            "bus_i": 2,
            "index": 2
        },
        "3": {
            "bus_type": 2,
            "zone": 1,
            "va": 0,
            "area": 1,
            "vm": 1,
            "vmin": 0.9,
            "vmax": 1.1,
            "base_kv": 0,
            "bus_i": 3,
            "index": 3
        }
    },
    "source_type": "matpower",
    "name": "case3",
    "dcline": {},
    "source_version": "2",
    "cost_deficit": 1000,
    "gen": {
        "1": {
            "apf": 0,
            "qc1max": 0,
            "pg": 0,
            "model": 2,
            "shutdown": 0,
            "startup": 0,
            "qc2max": 0,
            "ramp_agc": 0,
            "qg": 0,
            "gen_bus": 2,
            "pmax": 1,
            "ramp_10": 0,
            "vg": 1,
            "mbase": 100,
            "pc2": 0,
            "index": 1,
            "cost": [
                2000,
                0
            ],
            "qmax": 100,
            "gen_status": 1,
            "qmin": -100,
            "qc1min": 0,
            "qc2min": 0,
            "pc1": 0,
            "ramp_q": 0,
            "ramp_30": 0,
            "ncost": 2,
            "pmin": 0
        },
        "2": {
            "apf": 0,
            "qc1max": 0,
            "pg": 0,
            "model": 2,
            "shutdown": 0,
            "startup": 0,
            "qc2max": 0,
            "ramp_agc": 0,
            "qg": 0,
            "gen_bus": 3,
            "pmax": 0.5,
            "ramp_10": 0,
            "vg": 1,
            "mbase": 100,
            "pc2": 0,
            "index": 2,
            "cost": [
                10000,
                0
            ],
            "qmax": 100,
            "gen_status": 1,
            "qmin": -100,
            "qc1min": 0,
            "qc2min": 0,
            "pc1": 0,
            "ramp_q": 0,
            "ramp_30": 0,
            "ncost": 2,
            "pmin": 0
        },
        "3": {
            "apf": 0,
            "qc1max": 0,
            "pg": 0,
            "model": 2,
            "shutdown": 0,
            "startup": 0,
            "qc2max": 0,
            "ramp_agc": 0,
            "qg": 0,
            "gen_bus": 1,
            "pmax": 0.8,
            "ramp_10": 0,
            "vg": 1,
            "mbase": 100,
            "pc2": 0,
            "index": 3,
            "cost": [],
            "qmax": 100,
            "gen_status": 1,
            "qmin": -100,
            "qc1min": 0,
            "qc2min": 0,
            "pc1": 0,
            "ramp_q": 0,
            "ramp_30": 0,
            "ncost": 0,
            "pmin": 0
        }
    },
    "branch": {
        "1": {
            "br_r": 0.065,
            "rate_a": 1,
            "shift": 0,
            "br_x": 1,
            "g_to": 0,
            "g_fr": 0,
            "b_fr": 0.225,
            "f_bus": 1,
            "br_status": 1,
            "t_bus": 3,
            "b_to": 0.225,
            "index": 1,
            "angmin": -1.0472,
            "angmax": 1.0472,
            "transformer": false,
            "tap": 1
        },
        "2": {
            "br_r": 0.025,
            "rate_a": 0.65,
            "shift": 0,
            "br_x": 0.5,
            "g_to": 0,
            "g_fr": 0,
            "b_fr": 0.35,
            "f_bus": 3,
            "br_status": 1,
            "t_bus": 2,
            "b_to": 0.35,
            "index": 2,
            "angmin": -1.0472,
            "angmax": 1.0472,
            "transformer": false,
            "tap": 1
        },
        "3": {
            "br_r": 0.042,
            "rate_a": 0.25,
            "shift": 0,
            "br_x": 1,
            "g_to": 0,
            "g_fr": 0,
            "b_fr": 0.15,
            "f_bus": 1,
            "br_status": 1,
            "t_bus": 2,
            "b_to": 0.15,
            "index": 3,
            "angmin": -1.0472,
            "angmax": 1.0472,
            "transformer": false,
            "tap": 1
        }
    },
    "storage": {},
    "baseMVA": 100,
    "per_unit": true,
    "shunt": {},
    "switch": {},
    "load": {
        "1": {
            "load_bus": 3,
            "status": 1,
            "qd": 0,
            "pd": 1,
            "index": 1
        }
    }
}